<routes>
    <vType id="rescue" vClass="emergency" speedFactor="1.5" color="0,0,1">
        <param key="has.bluelight.device" value="true"/>
    </vType>
    <!-- <vType id="emergency" accel="3.0" decel="6.0" sigma="0.5" length="5.0" maxSpeed="30" color="1,0,0" /> -->
    <route id="route_ns" edges="n_t t_s"/>
    <route id="route_we" edges="w_t t_e"/>
    <flow id="flow_emergency_ns_1" type="rescue" route="route_ns" begin="0" end="100000" probability="0.005" departSpeed="max" departPos="base" departLane="best"/>
    <flow id="flow_emergency_ns_2" type="rescue" route="route_we" begin="0" end="100000" probability="0.005" departSpeed="max" departPos="base" departLane="best"/>
    <!-- <flow id="flow_emergency_ns_1" type="emergency" route="route_ns" begin="0" end="100000" probability="0.01" departSpeed="max" departPos="base" departLane="best"/> -->
    <flow id="flow_ns" route="route_ns" begin="0" end="100000" probability="0.2" departSpeed="max" departPos="base" departLane="best"/>
    <flow id="flow_we" route="route_we" begin="0" end="100000" probability="0.5" departSpeed="max" departPos="base" departLane="best"/>
</routes>
